GW 21 5 0.000000 0.000000 0.005000 0.025000 0.000000 0.048301 0.000500
GW 22 5 0.000000 0.000000 0.005000 0.023776 0.007725 0.048301 0.000500
GW 23 5 0.000000 0.000000 0.005000 0.020225 0.014695 0.048301 0.000500
GW 24 5 0.000000 0.000000 0.005000 0.014695 0.020225 0.048301 0.000500
GW 25 5 0.000000 0.000000 0.005000 0.007725 0.023776 0.048301 0.000500
GW 26 5 0.000000 0.000000 0.005000 0.000000 0.025000 0.048301 0.000500
GW 27 5 0.000000 0.000000 0.005000 -0.007725 0.023776 0.048301 0.000500
GW 28 5 0.000000 0.000000 0.005000 -0.014695 0.020225 0.048301 0.000500
GW 29 5 0.000000 0.000000 0.005000 -0.020225 0.014695 0.048301 0.000500
GW 30 5 0.000000 0.000000 0.005000 -0.023776 0.007725 0.048301 0.000500
GW 31 5 0.000000 0.000000 0.005000 -0.025000 0.000000 0.048301 0.000500
GW 32 5 0.000000 0.000000 0.005000 -0.023776 -0.007725 0.048301 0.000500
GW 33 5 0.000000 0.000000 0.005000 -0.020225 -0.014695 0.048301 0.000500
GW 34 5 0.000000 0.000000 0.005000 -0.014695 -0.020225 0.048301 0.000500
GW 35 5 0.000000 0.000000 0.005000 -0.007725 -0.023776 0.048301 0.000500
GW 36 5 0.000000 0.000000 0.005000 -0.000000 -0.025000 0.048301 0.000500
GW 37 5 0.000000 0.000000 0.005000 0.007725 -0.023776 0.048301 0.000500
GW 38 5 0.000000 0.000000 0.005000 0.014695 -0.020225 0.048301 0.000500
GW 39 5 0.000000 0.000000 0.005000 0.020225 -0.014695 0.048301 0.000500
GW 40 5 0.000000 0.000000 0.005000 0.023776 -0.007725 0.048301 0.000500
