GW 1 5 0.000000 0.000000 0.000000 0.030000 0.000000 0.000000 0.000500
GW 2 5 0.000000 0.000000 0.000000 0.028532 0.009271 0.000000 0.000500
GW 3 5 0.000000 0.000000 0.000000 0.024271 0.017634 0.000000 0.000500
GW 4 5 0.000000 0.000000 0.000000 0.017634 0.024271 0.000000 0.000500
GW 5 5 0.000000 0.000000 0.000000 0.009271 0.028532 0.000000 0.000500
GW 6 5 0.000000 0.000000 0.000000 0.000000 0.030000 0.000000 0.000500
GW 7 5 0.000000 0.000000 0.000000 -0.009271 0.028532 0.000000 0.000500
GW 8 5 0.000000 0.000000 0.000000 -0.017634 0.024271 0.000000 0.000500
GW 9 5 0.000000 0.000000 0.000000 -0.024271 0.017634 0.000000 0.000500
GW 10 5 0.000000 0.000000 0.000000 -0.028532 0.009271 0.000000 0.000500
GW 11 5 0.000000 0.000000 0.000000 -0.030000 0.000000 0.000000 0.000500
GW 12 5 0.000000 0.000000 0.000000 -0.028532 -0.009271 0.000000 0.000500
GW 13 5 0.000000 0.000000 0.000000 -0.024271 -0.017634 0.000000 0.000500
GW 14 5 0.000000 0.000000 0.000000 -0.017634 -0.024271 0.000000 0.000500
GW 15 5 0.000000 0.000000 0.000000 -0.009271 -0.028532 0.000000 0.000500
GW 16 5 0.000000 0.000000 0.000000 -0.000000 -0.030000 0.000000 0.000500
GW 17 5 0.000000 0.000000 0.000000 0.009271 -0.028532 0.000000 0.000500
GW 18 5 0.000000 0.000000 0.000000 0.017634 -0.024271 0.000000 0.000500
GW 19 5 0.000000 0.000000 0.000000 0.024271 -0.017634 0.000000 0.000500
GW 20 5 0.000000 0.000000 0.000000 0.028532 -0.009271 0.000000 0.000500
