CM Disc-cone antenna Question D: 8 wires for disc and 8 more for cone
CM Boufikos Thomas 9360
CE

GW 1 9 0.000000 0.000000 0.000000 0.000000 0.030000 0.000000 0.000500
GW 2 9 0.000000 0.000000 0.000000 0.000000 -0.030000 0.000000 0.000500
GW 9 9 0.000000 0.000000 0.005000 0.000000 0.001870 0.049965 0.000500
GW 10 9 0.000000 0.000000 0.005000 0.000000 -0.001870 0.049965 0.000500
GW 11 9 0.000000 0.000000 0.005000 0.000000 0.009296 0.049128 0.000500
GW 12 9 0.000000 0.000000 0.005000 0.000000 -0.009296 0.049128 0.000500
GW 13 9 0.000000 0.000000 0.005000 0.000000 0.016514 0.047194 0.000500
GW 14 9 0.000000 0.000000 0.005000 0.000000 -0.016514 0.047194 0.000500
GW 15 9 0.000000 0.000000 0.005000 0.000000 0.023363 0.044206 0.000500
GW 16 9 0.000000 0.000000 0.005000 0.000000 -0.023363 0.044206 0.000500
GW 17 1 0.000000 0.000000 0.000000 0.000000 0.000000 0.005000 0.000500


GE 0
EX 0 17 1 0 1 0
FR 0 1 0 0 3000 0

