CM Disc-cone antenna: 8 wires for disc and 8 more for cone
CM Boufikos Thomas 9360
CE

GW 1 5 0.000000 0.000000 0.000000 0.030000 0.000000 0.000000 0.000500
GW 2 5 0.000000 0.000000 0.000000 0.021213 0.021213 0.000000 0.000500
GW 3 5 0.000000 0.000000 0.000000 0.000000 0.030000 0.000000 0.000500
GW 4 5 0.000000 0.000000 0.000000 -0.021213 0.021213 0.000000 0.000500
GW 5 5 0.000000 0.000000 0.000000 -0.030000 0.000000 0.000000 0.000500
GW 6 5 0.000000 0.000000 0.000000 -0.021213 -0.021213 0.000000 0.000500
GW 7 5 0.000000 0.000000 0.000000 -0.000000 -0.030000 0.000000 0.000500
GW 8 5 0.000000 0.000000 0.000000 0.021213 -0.021213 0.000000 0.000500
GW 9 5 0.000000 0.000000 0.005000 0.025000 0.000000 0.048301 0.000500
GW 10 5 0.000000 0.000000 0.005000 0.017678 0.017678 0.048301 0.000500
GW 11 5 0.000000 0.000000 0.005000 0.000000 0.025000 0.048301 0.000500
GW 12 5 0.000000 0.000000 0.005000 -0.017678 0.017678 0.048301 0.000500
GW 13 5 0.000000 0.000000 0.005000 -0.025000 0.000000 0.048301 0.000500
GW 14 5 0.000000 0.000000 0.005000 -0.017678 -0.017678 0.048301 0.000500
GW 15 5 0.000000 0.000000 0.005000 -0.000000 -0.025000 0.048301 0.000500
GW 16 5 0.000000 0.000000 0.005000 0.017678 -0.017678 0.048301 0.000500
GW 17 1 0.000000 0.000000 0.000000 0.000000 0.000000 0.005000 0.000500


GE 0
EX 0 17 1 0 1 0
FR 0 1 0 0 3000 0

EN
