CM Wire-grid dipole-antenna

GW 1 1 0.000000 0.000000 -0.041800 0.000000 0.000000 -0.037819 0.001300
GW 2 1 0.000000 0.000000 -0.037819 0.000000 0.000000 -0.033838 0.001300
GW 3 1 0.000000 0.000000 -0.033838 0.000000 0.000000 -0.029857 0.001300
GW 4 1 0.000000 0.000000 -0.029857 0.000000 0.000000 -0.025876 0.001300
GW 5 1 0.000000 0.000000 -0.025876 0.000000 0.000000 -0.021895 0.001300
GW 6 1 0.000000 0.000000 -0.021895 0.000000 0.000000 -0.017914 0.001300
GW 7 1 0.000000 0.000000 -0.017914 0.000000 0.000000 -0.013933 0.001300
GW 8 1 0.000000 0.000000 -0.013933 0.000000 0.000000 -0.009952 0.001300
GW 9 1 0.000000 0.000000 -0.009952 0.000000 0.000000 -0.005971 0.001300
GW 10 1 0.000000 0.000000 -0.005971 0.000000 0.000000 -0.001990 0.001300
GW 11 1 0.000000 0.000000 -0.001990 0.000000 0.000000 0.001990 0.001300
GW 12 1 0.000000 0.000000 0.001990 0.000000 0.000000 0.005971 0.001300
GW 13 1 0.000000 0.000000 0.005971 0.000000 0.000000 0.009952 0.001300
GW 14 1 0.000000 0.000000 0.009952 0.000000 0.000000 0.013933 0.001300
GW 15 1 0.000000 0.000000 0.013933 0.000000 0.000000 0.017914 0.001300
GW 16 1 0.000000 0.000000 0.017914 0.000000 0.000000 0.021895 0.001300
GW 17 1 0.000000 0.000000 0.021895 0.000000 0.000000 0.025876 0.001300
GW 18 1 0.000000 0.000000 0.025876 0.000000 0.000000 0.029857 0.001300
GW 19 1 0.000000 0.000000 0.029857 0.000000 0.000000 0.033838 0.001300
GW 20 1 0.000000 0.000000 0.033838 0.000000 0.000000 0.037819 0.001300
GW 21 1 0.000000 0.000000 0.037819 0.000000 0.000000 0.041800 0.001300
